Version 4
SHEET 1 1348 680
WIRE 672 -240 624 -240
WIRE 736 -240 672 -240
WIRE 736 -224 736 -240
WIRE 624 -192 624 -240
WIRE 496 -144 400 -144
WIRE 400 -128 400 -144
WIRE 736 -128 736 -144
WIRE 624 -80 624 -96
FLAG 400 -48 0
FLAG 624 -80 0
FLAG 736 -128 0
DATAFLAG 672 -240 "-I(V2)"
SYMBOL SFH309FA 560 -176 R0
WINDOW 39 -16 -13 Bottom 2
SYMATTR SpiceLine Lambda={LAM} Ipce=2m
SYMATTR InstName X1
SYMBOL voltage 400 -144 R0
WINDOW 123 0 0 Left 2
WINDOW 39 0 0 Left 2
SYMATTR InstName V1
SYMATTR Value 5
SYMBOL voltage 736 -240 R0
WINDOW 123 0 0 Left 2
WINDOW 39 0 0 Left 2
SYMATTR InstName V2
SYMATTR Value 5
TEXT 368 -24 Left 2 !.op
TEXT 368 -264 Left 2 ;SFH 309 FA-4/5
TEXT 456 -48 Left 2 ;5W/M^2=0.5mW/cm^2
TEXT 440 -16 Left 2 !.step param Lam 700 1100 50
