Version 4
SHEET 1 2356 680
WIRE -80 -1344 -304 -1344
WIRE 32 -1344 0 -1344
WIRE 32 -1328 32 -1344
WIRE -16 -1264 -304 -1264
WIRE 224 -1264 224 -1296
WIRE 224 -1264 80 -1264
WIRE 288 -1264 224 -1264
WIRE 656 -1264 368 -1264
WIRE 656 -1200 656 -1264
WIRE 112 -1168 -304 -1168
WIRE 112 -1104 112 -1168
WIRE 128 -1104 112 -1104
WIRE 224 -1104 224 -1264
WIRE 224 -1104 192 -1104
WIRE -80 -1088 -96 -1088
WIRE 32 -1088 0 -1088
WIRE 272 -1088 272 -1136
WIRE 656 -1088 656 -1136
WIRE 656 -1088 272 -1088
WIRE 272 -1072 272 -1088
WIRE 656 -1056 656 -1088
WIRE 32 -1040 32 -1088
WIRE 32 -1040 -96 -1040
WIRE 848 -1008 784 -1008
WIRE -256 -992 -304 -992
WIRE -160 -992 -176 -992
WIRE 848 -992 848 -1008
WIRE 32 -960 32 -1040
WIRE 112 -960 112 -1104
WIRE 128 -960 112 -960
WIRE 272 -960 272 -992
WIRE 272 -960 192 -960
WIRE -96 -928 -96 -944
WIRE -16 -896 -304 -896
WIRE 224 -896 224 -1104
WIRE 224 -896 80 -896
WIRE 656 -896 656 -960
WIRE 656 -896 400 -896
WIRE 848 -896 848 -912
WIRE 272 -880 272 -960
WIRE 400 -816 400 -896
WIRE -96 -800 -304 -800
WIRE 128 -800 -96 -800
WIRE 272 -800 272 -880
WIRE 272 -800 192 -800
WIRE 272 -768 272 -800
WIRE -1136 -752 -1248 -752
WIRE -976 -752 -976 -800
WIRE -976 -752 -1136 -752
WIRE -96 -736 -96 -800
WIRE 400 -720 400 -736
WIRE 400 -720 336 -720
WIRE -1248 -704 -1248 -752
WIRE -1136 -704 -1136 -752
WIRE 400 -704 400 -720
WIRE -256 -688 -304 -688
WIRE -160 -688 -176 -688
WIRE -640 -656 -640 -800
WIRE -752 -624 -752 -800
WIRE -96 -608 -96 -640
WIRE -976 -592 -976 -752
WIRE -864 -592 -864 -800
WIRE -1248 -576 -1248 -624
WIRE -1136 -576 -1136 -624
WIRE 272 -576 272 -672
WIRE 400 -576 400 -624
WIRE -976 -464 -976 -512
WIRE -864 -464 -864 -512
WIRE -752 -464 -752 -544
WIRE -640 -464 -640 -576
FLAG 400 -576 0
FLAG 272 -576 0
FLAG -304 -800 Rx_Vito
FLAG -304 -1168 Rx_HomeCtrl
FLAG -304 -1264 Tx_HomeCtrl
FLAG -304 -896 Tx_Vito
FLAG -304 -1344 3V3
FLAG -864 -464 0
FLAG -752 -464 0
FLAG -976 -464 0
FLAG -976 -800 3V3
FLAG -752 -800 Tx_Vito
FLAG -864 -800 Tx_HomeCtrl
FLAG 272 -1136 3V3
FLAG 224 -1296 Tx_Optical
FLAG 272 -880 Rx_Optical
FLAG -304 -992 DTR_HomeCtrl
FLAG -640 -464 0
FLAG -640 -800 DTR_HomeCtrl
FLAG -96 -928 0
FLAG -96 -1088 3V3
FLAG -96 -608 0
FLAG -1248 -576 Rx_HomeCtrl
FLAG -1136 -576 Rx_Vito
FLAG 848 -896 0
FLAG -304 -688 DTR_HomeCtrl
SYMBOL res 384 -832 R0
SYMATTR InstName R1
SYMATTR Value 560
SYMBOL res 384 -720 R0
SYMATTR InstName R2
SYMATTR Value 1.2k
SYMBOL npn 336 -768 M0
SYMATTR InstName Q1
SYMATTR Value BC547C
SYMBOL npn 80 -960 R90
SYMATTR InstName Q3
SYMATTR Value BC547C
SYMBOL schottky 128 -944 R270
WINDOW 0 32 32 VTop 2
WINDOW 3 0 32 VBottom 2
SYMATTR InstName D1
SYMATTR Value BAT42
SYMBOL schottky 128 -784 R270
WINDOW 0 32 32 VTop 2
WINDOW 3 0 32 VBottom 2
SYMATTR InstName D2
SYMATTR Value BAT42
SYMBOL res 16 -1104 R90
WINDOW 0 0 56 VBottom 2
WINDOW 3 32 56 VTop 2
SYMATTR InstName R5
SYMATTR Value 2.7k
SYMBOL npn 80 -1328 R90
SYMATTR InstName Q2
SYMATTR Value BC547C
SYMBOL res 16 -1360 R90
WINDOW 0 0 56 VBottom 2
WINDOW 3 32 56 VTop 2
SYMATTR InstName R4
SYMATTR Value 2.15k
SYMBOL res 384 -1280 R90
WINDOW 0 0 56 VBottom 2
WINDOW 3 32 56 VTop 2
SYMATTR InstName R6
SYMATTR Value 270
SYMBOL LED 672 -1136 R180
WINDOW 0 24 64 Left 2
WINDOW 3 24 0 Left 2
SYMATTR InstName VD1
SYMATTR Value SFH487
SYMBOL res 256 -1088 R0
SYMATTR InstName R3
SYMATTR Value 4.7k
SYMBOL schottky 128 -1088 R270
WINDOW 0 32 32 VTop 2
WINDOW 3 0 32 VBottom 2
SYMATTR InstName D4
SYMATTR Value BAT42
SYMBOL voltage -976 -608 R0
WINDOW 123 0 0 Left 0
WINDOW 39 0 0 Left 0
SYMATTR InstName V1
SYMATTR Value 3.3
SYMBOL voltage -864 -608 R0
WINDOW 123 0 0 Left 0
WINDOW 39 0 0 Left 0
SYMATTR InstName V2
SYMATTR Value PULSE(3.3 0 2 0 0 0.1 0.2 5)
SYMBOL voltage -752 -640 R0
WINDOW 123 0 0 Left 0
WINDOW 39 0 0 Left 0
SYMATTR InstName V3
SYMATTR Value PULSE(3.3 0 0.5 0 0 0.1 0.2 5)
SYMBOL voltage 848 -1008 R0
WINDOW 123 0 0 Left 0
WINDOW 39 0 0 Left 0
SYMATTR InstName V5
SYMATTR Value 5
SYMBOL voltage -640 -672 R0
WINDOW 123 0 0 Left 0
WINDOW 39 0 0 Left 0
SYMATTR InstName V4
SYMATTR Value PULSE(0 3.3 1 0.001 0.001 1.3 2.8 2)
SYMBOL npn -160 -1040 R0
SYMATTR InstName Q5
SYMATTR Value BC547C
SYMBOL res -160 -704 R90
WINDOW 0 0 56 VBottom 2
WINDOW 3 32 56 VTop 2
SYMATTR InstName R8
SYMATTR Value 2.7k
SYMBOL npn -160 -736 R0
SYMATTR InstName Q4
SYMATTR Value BC547C
SYMBOL res -160 -1008 R90
WINDOW 0 0 56 VBottom 2
WINDOW 3 32 56 VTop 2
SYMATTR InstName R9
SYMATTR Value 2.7k
SYMBOL res -1264 -720 R0
SYMATTR InstName R10
SYMATTR Value 2.7k
SYMBOL res -1152 -720 R0
SYMATTR InstName R11
SYMATTR Value 2.7k
SYMBOL SFH309FA 720 -1040 M0
SYMATTR InstName X1
TEXT 648 -552 Left 2 !.tran 0 5 .1
TEXT 648 -624 Left 2 !.model SFH487 D (Is=93.1P Rs=42M N=2.63 Bv=4 Ibv=10U\n+ Cjo=2.97P Vj=.75 M=.333 TT=4.32U type=LED-IR)
TEXT 648 -704 Left 2 !.model BAT42 D  ( Is=2.46u Rs=0.210 Bv=30.0 Ibv=500n\n+ Cjo=13.3p  M=0.333 N=1.70 Tt=7.20n )
TEXT 648 -760 Left 2 !.func Lambda(t) {tbl(t, 0,700, 3.5,700, 3.6,1000, 4,1000, 4.1,700, 6,700)}
