Version 4
SHEET 1 1868 680
WIRE -256 -1344 -304 -1344
WIRE -144 -1344 -176 -1344
WIRE -144 -1328 -144 -1344
WIRE -192 -1264 -304 -1264
WIRE 48 -1264 48 -1296
WIRE 48 -1264 -96 -1264
WIRE 112 -1264 48 -1264
WIRE 480 -1264 192 -1264
WIRE 480 -1200 480 -1264
WIRE -64 -1168 -304 -1168
WIRE -64 -1104 -64 -1168
WIRE -48 -1104 -64 -1104
WIRE 48 -1104 48 -1264
WIRE 48 -1104 16 -1104
WIRE 96 -1088 96 -1136
WIRE 480 -1088 480 -1136
WIRE 480 -1088 96 -1088
WIRE 96 -1072 96 -1088
WIRE 480 -1056 480 -1088
WIRE 608 -1008 544 -1008
WIRE 752 -1008 688 -1008
WIRE 752 -992 752 -1008
WIRE -256 -976 -304 -976
WIRE -144 -976 -176 -976
WIRE -144 -960 -144 -976
WIRE -64 -960 -64 -1104
WIRE -48 -960 -64 -960
WIRE 96 -960 96 -992
WIRE 96 -960 16 -960
WIRE -192 -896 -304 -896
WIRE 48 -896 48 -1104
WIRE 48 -896 -96 -896
WIRE 480 -896 480 -960
WIRE 480 -896 224 -896
WIRE 752 -896 752 -912
WIRE 752 -896 480 -896
WIRE 96 -880 96 -960
WIRE 224 -816 224 -896
WIRE -896 -800 -1008 -800
WIRE -752 -800 -752 -832
WIRE -752 -800 -896 -800
WIRE -48 -800 -304 -800
WIRE 96 -800 96 -880
WIRE 96 -800 16 -800
WIRE -752 -784 -752 -800
WIRE -528 -784 -528 -832
WIRE 96 -768 96 -800
WIRE -1008 -752 -1008 -800
WIRE -896 -752 -896 -800
WIRE -640 -720 -640 -832
WIRE 224 -720 224 -736
WIRE 224 -720 160 -720
WIRE 224 -704 224 -720
WIRE -1008 -624 -1008 -672
WIRE -896 -624 -896 -672
WIRE -752 -576 -752 -704
WIRE -640 -576 -640 -640
WIRE -528 -576 -528 -704
WIRE 96 -576 96 -672
WIRE 224 -576 224 -624
FLAG 224 -576 0
FLAG 96 -576 0
FLAG -304 -800 Rx_Vito
FLAG -304 -1168 Rx_HomeCtrl
FLAG -304 -1264 Tx_HomeCtrl
FLAG -304 -896 Tx_Vito
FLAG -304 -976 3V3
FLAG -304 -1344 3V3
FLAG -640 -576 0
FLAG -528 -576 0
FLAG -752 -576 0
FLAG -752 -832 3V3
FLAG -528 -832 Tx_Vito
FLAG -640 -832 Tx_HomeCtrl
FLAG 96 -1136 3V3
FLAG 48 -1296 Tx_Com
FLAG 96 -880 Rx_Com
FLAG -1008 -624 Rx_HomeCtrl
FLAG -896 -624 Rx_Vito
SYMBOL res 208 -832 R0
SYMATTR InstName R1
SYMATTR Value 560
SYMBOL res 208 -720 R0
SYMATTR InstName R2
SYMATTR Value 1.2k
SYMBOL npn 160 -768 M0
SYMATTR InstName Q1
SYMATTR Value BC547C
SYMBOL npn -96 -960 R90
SYMATTR InstName Q3
SYMATTR Value BC547C
SYMBOL schottky -48 -944 R270
WINDOW 0 32 32 VTop 2
WINDOW 3 0 32 VBottom 2
SYMATTR InstName D1
SYMATTR Value BAT42
SYMBOL schottky -48 -784 R270
WINDOW 0 32 32 VTop 2
WINDOW 3 0 32 VBottom 2
SYMATTR InstName D2
SYMATTR Value BAT42
SYMBOL res -160 -992 R90
WINDOW 0 0 56 VBottom 2
WINDOW 3 32 56 VTop 2
SYMATTR InstName R5
SYMATTR Value 2.15k
SYMBOL npn -96 -1328 R90
SYMATTR InstName Q2
SYMATTR Value BC547C
SYMBOL res -160 -1360 R90
WINDOW 0 0 56 VBottom 2
WINDOW 3 32 56 VTop 2
SYMATTR InstName R4
SYMATTR Value 2.15k
SYMBOL res 208 -1280 R90
WINDOW 0 0 56 VBottom 2
WINDOW 3 32 56 VTop 2
SYMATTR InstName R6
SYMATTR Value 270
SYMBOL LED 496 -1136 R180
WINDOW 0 24 64 Left 2
WINDOW 3 24 0 Left 2
SYMATTR InstName D3
SYMATTR Value SFH487
SYMBOL res 80 -1088 R0
SYMATTR InstName R3
SYMATTR Value 4.7k
SYMBOL schottky -48 -1088 R270
WINDOW 0 32 32 VTop 2
WINDOW 3 0 32 VBottom 2
SYMATTR InstName D4
SYMATTR Value BAT42
SYMBOL voltage -752 -800 R0
WINDOW 123 0 0 Left 0
WINDOW 39 0 0 Left 0
SYMATTR InstName V1
SYMATTR Value 4.1
SYMBOL voltage -640 -736 R0
WINDOW 123 0 0 Left 0
WINDOW 39 0 0 Left 0
SYMATTR InstName V2
SYMATTR Value PULSE(3.3 0 2 0 0 0.1 0.2 3)
SYMBOL voltage -528 -800 R0
WINDOW 123 0 0 Left 0
WINDOW 39 0 0 Left 0
SYMATTR InstName V3
SYMATTR Value PULSE(3.3 0 0.5 0 0 0.1 0.2 3)
SYMBOL npn 544 -1056 M0
SYMATTR InstName Q4
SYMATTR Value SFH309
SYMBOL res 704 -1024 R90
WINDOW 0 0 56 VBottom 2
WINDOW 3 32 56 VTop 2
SYMATTR InstName R7
SYMATTR Value 2.15k
SYMBOL voltage 752 -1008 R0
WINDOW 123 0 0 Left 0
WINDOW 39 0 0 Left 0
SYMATTR InstName V4
SYMATTR Value PULSE(0 3.3 3.5 0.01 0.01 0.1 0.2 3)
SYMBOL res -1024 -768 R0
SYMATTR InstName R8
SYMATTR Value 2.7k
SYMBOL res -912 -768 R0
SYMATTR InstName R9
SYMATTR Value 2.7k
TEXT 384 -664 Left 2 !.tran 5
TEXT 552 -936 Left 2 ;SFH309FA
TEXT 384 -624 Left 2 !.model BAT42 D  ( Is=2.46u Rs=0.210 Bv=30.0 Ibv=500n\n+ Cjo=13.3p  M=0.333 N=1.70 Tt=7.20n )
TEXT 384 -560 Left 2 !.model SFH487 D (Is=93.1P Rs=42M N=2.63 Bv=4 Ibv=10U\n+ Cjo=2.97P Vj=.75 M=.333 TT=4.32U type=LED-IR)
TEXT 376 -488 Left 2 !.MODEL SFH309 NPN (IS=22.500E-15 BF=714.44 NF=1.0100 VAF=93.200\n+ IKF=10.010E-3 ISE=22.500E-15 NE=1.7206 VAR=300 NK=.2987 RE=59.2\n+ CJE=9.212E-12 MJE=0.286 VJE=0.627 FC=0.5 CJC=8.735E-12\n+ MJC=0.275 VJC=0.467 TF=0.1E-9)
